Version 4
SHEET 1 2228 1740
WIRE 1248 48 1216 48
WIRE 1264 112 1264 48
WIRE 1312 112 1264 112
WIRE 1168 128 1168 48
WIRE 1168 128 1072 128
WIRE 544 160 544 112
WIRE 1168 192 1168 128
WIRE 1216 192 1184 192
WIRE 1264 192 1264 112
WIRE 1312 240 1312 112
WIRE 1376 240 1312 240
WIRE 544 256 544 192
WIRE 1184 256 1120 256
WIRE 1248 256 1248 240
WIRE 1248 256 1184 256
WIRE 1248 304 1216 304
WIRE 1168 336 1168 304
WIRE 1168 336 1072 336
WIRE 1264 368 1264 304
WIRE 1312 368 1312 240
WIRE 1312 368 1264 368
WIRE 1168 448 1168 336
WIRE 1216 448 1184 448
WIRE 1264 448 1264 368
WIRE 1248 608 1216 608
WIRE 1264 672 1264 608
WIRE 1312 672 1264 672
WIRE 1168 688 1168 608
WIRE 1168 688 1072 688
WIRE 1168 752 1168 688
WIRE 1216 752 1184 752
WIRE 1264 752 1264 672
WIRE 1312 800 1312 672
WIRE 1376 800 1312 800
WIRE 1184 816 1120 816
WIRE 1248 816 1248 800
WIRE 1248 816 1184 816
WIRE 1248 864 1216 864
WIRE 1168 896 1168 864
WIRE 1168 896 1072 896
WIRE 1264 928 1264 864
WIRE 1312 928 1312 800
WIRE 1312 928 1264 928
WIRE 1168 1008 1168 896
WIRE 1216 1008 1184 1008
WIRE 1264 1008 1264 928
WIRE 1248 1216 1216 1216
WIRE 1264 1280 1264 1216
WIRE 1312 1280 1264 1280
WIRE 1168 1296 1168 1216
WIRE 1168 1296 1072 1296
WIRE 1168 1360 1168 1296
WIRE 1216 1360 1184 1360
WIRE 1264 1360 1264 1280
WIRE 1312 1408 1312 1280
WIRE 1376 1408 1312 1408
WIRE 1184 1424 1120 1424
WIRE 1248 1424 1248 1408
WIRE 1248 1424 1184 1424
WIRE 1248 1472 1216 1472
WIRE 1168 1504 1168 1472
WIRE 1168 1504 1072 1504
WIRE 1264 1536 1264 1472
WIRE 1312 1536 1312 1408
WIRE 1312 1536 1264 1536
WIRE 1168 1616 1168 1504
WIRE 1216 1616 1184 1616
WIRE 1264 1616 1264 1536
FLAG 544 112 vdd
FLAG 1376 240 o1
FLAG 1376 800 o2
FLAG 1072 128 a1
FLAG 1072 336 b1
FLAG 544 256 vss
FLAG 1184 0 sel
FLAG 1120 256 notS
FLAG 1248 496 sel
FLAG 1072 688 a2
FLAG 1072 896 b2
FLAG 1184 560 sel
FLAG 1120 816 notS
FLAG 1248 1056 sel
FLAG 1376 1408 o3
FLAG 1072 1296 a3
FLAG 1072 1504 b3
FLAG 1184 1168 sel
FLAG 1120 1424 notS
FLAG 1248 1664 sel
FLAG 576 176 notS
FLAG 528 176 sel
SYMBOL pmos018 1168 240 R270
SYMATTR InstName M1
SYMATTR Value2 l={ll} w={wp} ad={450n*{wp}} as={450n*{wp}} pd={900n+{wp}} ps={1080n+{wp}}
SYMBOL nmos018 1264 0 R90
SYMATTR InstName M2
SYMATTR Value2 l={ll} w={wn} ad={450n*{wn}} as={450n*{wn}} pd={900n+{wn}} ps={1080n+{wn}}
SYMBOL pmos018 1168 496 R270
SYMATTR InstName M3
SYMATTR Value2 l={ll} w={wp} ad={450n*{wp}} as={450n*{wp}} pd={900n+{wp}} ps={1080n+{wp}}
SYMBOL nmos018 1264 256 R90
SYMATTR InstName M4
SYMATTR Value2 l={ll} w={wn} ad={450n*{wn}} as={450n*{wn}} pd={900n+{wn}} ps={1080n+{wn}}
SYMBOL pmos018 1168 800 R270
SYMATTR InstName M5
SYMATTR Value2 l={ll} w={wp} ad={450n*{wp}} as={450n*{wp}} pd={900n+{wp}} ps={1080n+{wp}}
SYMBOL nmos018 1264 560 R90
SYMATTR InstName M6
SYMATTR Value2 l={ll} w={wn} ad={450n*{wn}} as={450n*{wn}} pd={900n+{wn}} ps={1080n+{wn}}
SYMBOL pmos018 1168 1056 R270
SYMATTR InstName M7
SYMATTR Value2 l={ll} w={wp} ad={450n*{wp}} as={450n*{wp}} pd={900n+{wp}} ps={1080n+{wp}}
SYMBOL nmos018 1264 816 R90
SYMATTR InstName M8
SYMATTR Value2 l={ll} w={wn} ad={450n*{wn}} as={450n*{wn}} pd={900n+{wn}} ps={1080n+{wn}}
SYMBOL pmos018 1168 1408 R270
SYMATTR InstName M9
SYMATTR Value2 l={ll} w={wp} ad={450n*{wp}} as={450n*{wp}} pd={900n+{wp}} ps={1080n+{wp}}
SYMBOL nmos018 1264 1168 R90
SYMATTR InstName M10
SYMATTR Value2 l={ll} w={wn} ad={450n*{wn}} as={450n*{wn}} pd={900n+{wn}} ps={1080n+{wn}}
SYMBOL pmos018 1168 1664 R270
SYMATTR InstName M11
SYMATTR Value2 l={ll} w={wp} ad={450n*{wp}} as={450n*{wp}} pd={900n+{wp}} ps={1080n+{wp}}
SYMBOL nmos018 1264 1424 R90
SYMATTR InstName M12
SYMATTR Value2 l={ll} w={wn} ad={450n*{wn}} as={450n*{wn}} pd={900n+{wn}} ps={1080n+{wn}}
SYMBOL inv 544 176 R0
SYMATTR InstName X1
SYMATTR SpiceLine ll=180n wn={nnw} wp={nnw*mp}
