Version 4
SHEET 1 1260 788
WIRE 448 112 448 96
WIRE 448 144 448 112
WIRE 448 144 336 144
WIRE 560 144 448 144
WIRE 336 160 336 144
WIRE 560 176 560 144
WIRE 336 208 336 176
WIRE 560 224 560 192
WIRE 288 240 256 240
WIRE 512 256 480 256
WIRE 336 304 336 256
WIRE 448 304 336 304
WIRE 560 304 560 272
WIRE 560 304 448 304
WIRE 448 336 448 304
WIRE 672 336 448 336
WIRE 400 368 352 368
WIRE 544 384 448 384
WIRE 400 416 400 368
WIRE 448 448 448 432
WIRE 544 496 544 384
WIRE 544 496 448 496
WIRE 400 528 352 528
WIRE 544 528 544 496
WIRE 544 528 448 528
WIRE 448 704 448 544
FLAG 448 112 vdd
FLAG 448 704 vss
FLAG 672 336 Q
FLAG 352 368 in1
FLAG 352 528 in2
FLAG 256 240 in1
FLAG 480 256 in2
SYMBOL nmos018 400 336 R0
SYMATTR InstName M2
SYMATTR Value2 l={ll} w={wn} ad={450n*{wn}} as={450n*{wn}} pd={900n+{wn}} ps={1080n+{wn}}
SYMBOL pmos018 288 160 R0
SYMATTR InstName M3
SYMATTR Value2 l={ll} w={wp} ad={450n*{wp}} as={450n*{wp}} pd={900n+{wp}} ps={1080n+{wp}}
SYMBOL pmos018 512 176 R0
SYMATTR InstName M4
SYMATTR Value2 l={ll} w={wp} ad={450n*{wp}} as={450n*{wp}} pd={900n+{wp}} ps={1080n+{wp}}
SYMBOL nmos018 400 448 R0
SYMATTR InstName M5
SYMATTR Value2 l={ll} w={wn} ad={450n*{wn}} as={450n*{wn}} pd={900n+{wn}} ps={1080n+{wn}}
TEXT -32 184 Left 2 !.lib BU_180nm.lib
TEXT 800 88 Left 2 ;Parametres requis: \nll=longueur \nwn=largeur_nmos \nmp = 1\nAD=AS={450n*{wp}}\nPD={900n+{wp}} ou {900n+{wn}}\nPS={1080n+{wp}} ou {1080n+{wn}}
