Version 4
SHEET 1 1260 788
WIRE 304 -96 304 -112
WIRE 304 -64 304 -96
WIRE 304 -64 192 -64
WIRE 416 -64 304 -64
WIRE 192 -16 192 -64
WIRE 416 0 416 -64
WIRE 192 32 192 0
WIRE 416 48 416 16
WIRE 144 64 112 64
WIRE 368 80 336 80
WIRE 192 208 192 80
WIRE 304 208 192 208
WIRE 416 208 416 96
WIRE 416 208 304 208
WIRE 304 288 304 208
WIRE 448 288 304 288
WIRE 448 336 448 288
WIRE 672 336 448 336
WIRE 400 368 352 368
WIRE 400 416 400 368
WIRE 448 416 448 384
WIRE 448 448 448 432
WIRE 400 528 352 528
WIRE 448 528 448 496
WIRE 448 704 448 544
FLAG 304 -96 vdd
FLAG 448 704 vss
FLAG 672 336 Q
FLAG 352 368 in1
FLAG 352 528 in2
FLAG 112 64 in1
FLAG 336 80 in2
SYMBOL nmos018 400 336 R0
SYMATTR InstName M2
SYMATTR Value2 l={ll} w={wn} ad={450n*{wn}} as={450n*{wn}} pd={900n+{wn}} ps={1080n+{wn}}
SYMBOL pmos018 144 -16 R0
SYMATTR InstName M3
SYMATTR Value2 l={ll} w={wp} ad={450n*{wp}} as={450n*{wp}} pd={900n+{wp}} ps={1080n+{wp}}
SYMBOL pmos018 368 0 R0
SYMATTR InstName M4
SYMATTR Value2 l={ll} w={wp} ad={450n*{wp}} as={450n*{wp}} pd={900n+{wp}} ps={1080n+{wp}}
SYMBOL nmos018 400 448 R0
SYMATTR InstName M5
SYMATTR Value2 l={ll} w={wn} ad={450n*{wn}} as={450n*{wn}} pd={900n+{wn}} ps={1080n+{wn}}
TEXT -528 160 Left 2 !.lib BU_180nm.lib\n.param wn=180n ll=180n wp=mp*wn mp=15
TEXT 800 88 Left 2 ;Parametres requis: \nll=longueur \nwn=largeur_nmos \nmp = 1\nAD=AS={450n*{wp}}\nPD={900n+{wp}} ou {900n+{wn}}\nPS={1080n+{wp}} ou {1080n+{wn}}
