Version 4
SHEET 1 1364 868
WIRE 400 192 400 48
WIRE 480 208 400 208
WIRE 352 272 304 272
WIRE 400 320 400 288
WIRE 480 368 480 208
WIRE 480 368 400 368
WIRE 352 400 320 400
WIRE 400 448 400 416
WIRE 512 448 400 448
WIRE 560 448 512 448
WIRE 512 512 512 448
WIRE 512 512 416 512
WIRE 624 512 512 512
WIRE 416 592 416 560
WIRE 576 592 560 592
WIRE 624 592 624 560
WIRE 624 608 416 608
WIRE 416 784 416 608
FLAG 400 48 vdd
FLAG 416 784 vss
FLAG 560 448 Q
FLAG 368 592 in1
FLAG 560 592 in2
FLAG 304 272 in1
FLAG 320 400 in2
SYMBOL nmos018 576 512 R0
SYMATTR InstName M2
SYMATTR Value2 l={ll} w={wn} ad={450n*{wn}} as={450n*{wn}} pd={900n+{wn}} ps={1080n+{wn}}
SYMBOL pmos018 352 320 R0
SYMATTR InstName M4
SYMATTR Value2 l={ll} w={wp} ad={450n*{wp}} as={450n*{wp}} pd={900n+{wp}} ps={1080n+{wp}}
SYMBOL pmos018 352 192 R0
SYMATTR InstName M5
SYMATTR Value2 l={ll} w={wp} ad={450n*{wp}} as={450n*{wp}} pd={900n+{wp}} ps={1080n+{wp}}
SYMBOL nmos018 368 512 R0
SYMATTR InstName M3
SYMATTR Value2 l={ll} w={wn} ad={450n*{wn}} as={450n*{wn}} pd={900n+{wn}} ps={1080n+{wn}}
TEXT 72 168 Left 2 !.lib BU_180nm.lib
TEXT 584 64 Left 2 ;Parametres requis: \nll=longueur \nwn=largeur_nmos \nmp = 2.21\nAD=AS={450n*{wp}}\nPD={900n+{wp}} ou {900n+{wn}}\nPS={1080n+{wp}} ou {1080n+{wn}}
