Version 4
SHEET 1 1168 680
WIRE 96 320 -16 320
WIRE 176 320 144 320
WIRE 256 320 224 320
WIRE 336 320 304 320
WIRE 416 320 384 320
WIRE 496 320 464 320
WIRE 576 320 544 320
WIRE 656 320 624 320
WIRE 896 320 704 320
FLAG -16 320 in
FLAG 896 320 out
FLAG 112 304 vdd
FLAG 112 336 vss
FLAG 192 304 vdd
FLAG 192 336 vss
FLAG 272 304 vdd
FLAG 272 336 vss
FLAG 352 304 vdd
FLAG 352 336 vss
FLAG 432 304 vdd
FLAG 432 336 vss
FLAG 512 304 vdd
FLAG 512 336 vss
FLAG 592 304 vdd
FLAG 592 336 vss
FLAG 672 304 vdd
FLAG 672 336 vss
SYMBOL inv 112 320 R0
WINDOW 0 22 -34 Left 2
SYMATTR InstName X1
SYMATTR SpiceLine ll=180n wn={nnw} wp={nnw*mp}
SYMBOL inv 192 320 R0
WINDOW 0 22 -34 Left 2
SYMATTR InstName X2
SYMATTR SpiceLine ll=180n wn={nnw} wp={nnw*mp}
SYMBOL inv 272 320 R0
WINDOW 0 22 -34 Left 2
SYMATTR InstName X3
SYMATTR SpiceLine ll=180n wn={nnw} wp={nnw*mp}
SYMBOL inv 352 320 R0
WINDOW 0 22 -34 Left 2
SYMATTR InstName X4
SYMATTR SpiceLine ll=180n wn={nnw} wp={nnw*mp}
SYMBOL inv 432 320 R0
WINDOW 0 22 -34 Left 2
SYMATTR InstName X5
SYMATTR SpiceLine ll=180n wn={nnw} wp={nnw*mp}
SYMBOL inv 512 320 R0
WINDOW 0 22 -34 Left 2
SYMATTR InstName X6
SYMATTR SpiceLine ll=180n wn={nnw} wp={nnw*mp}
SYMBOL inv 592 320 R0
WINDOW 0 22 -34 Left 2
SYMATTR InstName X7
SYMATTR SpiceLine ll=180n wn={nnw} wp={nnw*mp}
SYMBOL inv 672 320 R0
WINDOW 0 22 -34 Left 2
SYMATTR InstName X8
SYMATTR SpiceLine ll=180n wn={nnw} wp={nnw*mp}
TEXT -40 128 Left 2 !.param wpad=360u mp=2.09  fac=0.5\n.lib BU_180nm.lib
