Version 4
SHEET 1 1268 892
WIRE 448 -304 448 -368
WIRE 448 -304 384 -304
WIRE 560 -304 448 -304
WIRE 640 -304 560 -304
WIRE 384 -288 384 -304
WIRE 560 -272 560 -304
WIRE 448 -240 448 -304
WIRE 448 -240 384 -240
WIRE 640 -224 640 -304
WIRE 640 -224 560 -224
WIRE 384 -144 384 -192
WIRE 560 -144 560 -176
WIRE 448 -96 448 -240
WIRE 448 -96 384 -96
WIRE 640 -96 640 -224
WIRE 640 -96 560 -96
WIRE 512 -48 512 -64
WIRE 384 32 384 -48
WIRE 464 32 384 32
WIRE 560 32 560 -48
WIRE 560 32 464 32
WIRE 464 96 464 32
WIRE 720 96 464 96
WIRE 464 160 464 96
WIRE 464 160 384 160
WIRE 560 160 464 160
WIRE 384 176 384 160
WIRE 560 192 560 160
WIRE 288 208 128 208
WIRE 416 224 384 224
WIRE 576 240 560 240
WIRE 288 256 288 208
WIRE 336 256 288 256
WIRE 384 320 384 272
WIRE 416 368 416 224
WIRE 416 368 384 368
WIRE 560 368 560 288
WIRE 272 400 272 384
WIRE 336 400 272 400
WIRE 576 416 576 240
WIRE 576 416 560 416
WIRE 384 496 384 416
WIRE 416 496 416 368
WIRE 416 496 384 496
WIRE 464 496 416 496
WIRE 560 496 560 464
WIRE 560 496 464 496
WIRE 576 496 576 416
WIRE 576 496 560 496
WIRE -32 560 -32 512
WIRE -48 576 -80 576
WIRE 112 576 0 576
WIRE 128 576 112 576
WIRE 464 576 464 496
WIRE -48 704 -80 704
WIRE 96 704 0 704
WIRE -32 784 -32 720
FLAG 128 208 in1
FLAG 272 384 in2
FLAG 464 576 vss
FLAG 448 -368 vdd
FLAG 720 96 Q
FLAG 112 576 notin1
FLAG 96 704 notin2
FLAG -80 704 in2
FLAG -80 576 in1
FLAG -32 784 vss
FLAG -32 512 vdd
FLAG -32 592 vss
FLAG -32 688 vdd
FLAG 512 272 notin1
FLAG 512 448 notin2
FLAG 336 -208 notin2
FLAG 512 -192 in2
FLAG 512 -48 notin1
FLAG 336 -64 in1
SYMBOL nmos018 336 176 R0
SYMATTR InstName M1
SYMATTR Value2 l={ll} w={wn} ad={450n*{wn}} as={450n*{wn}} pd={900n+{wn}} ps={1080n+{wn}}
SYMBOL nmos018 336 320 R0
SYMATTR InstName M2
SYMATTR Value2 l={ll} w={wn} ad={450n*{wn}} as={450n*{wn}} pd={900n+{wn}} ps={1080n+{wn}}
SYMBOL inv -32 576 R0
WINDOW 0 35 -35 Left 2
SYMATTR InstName X1
SYMATTR SpiceLine ll=180n wn={wn} wp={wn*mp}
SYMBOL inv -32 704 R0
WINDOW 0 30 -32 Left 2
SYMATTR InstName X2
SYMATTR SpiceLine ll=180n wn={wn} wp={wn*mp}
SYMBOL nmos018 512 192 R0
SYMATTR InstName M3
SYMATTR Value2 l={ll} w={wn} ad={450n*{wn}} as={450n*{wn}} pd={900n+{wn}} ps={1080n+{wn}}
SYMBOL nmos018 512 368 R0
SYMATTR InstName M4
SYMATTR Value2 l={ll} w={wn} ad={450n*{wn}} as={450n*{wn}} pd={900n+{wn}} ps={1080n+{wn}}
SYMBOL pmos018 336 -144 R0
SYMATTR InstName M5
SYMATTR Value2 l={ll} w={wp} ad={450n*{wp}} as={450n*{wp}} pd={900n+{wp}} ps={1080n+{wp}}
SYMBOL pmos018 336 -288 R0
SYMATTR InstName M6
SYMATTR Value2 l={ll} w={wp} ad={450n*{wp}} as={450n*{wp}} pd={900n+{wp}} ps={1080n+{wp}}
SYMBOL pmos018 512 -144 R0
SYMATTR InstName M7
SYMATTR Value2 l={ll} w={wp} ad={450n*{wp}} as={450n*{wp}} pd={900n+{wp}} ps={1080n+{wp}}
SYMBOL pmos018 512 -272 R0
SYMATTR InstName M8
SYMATTR Value2 l={ll} w={wp} ad={450n*{wp}} as={450n*{wp}} pd={900n+{wp}} ps={1080n+{wp}}
TEXT -80 56 Left 2 !.lib BU_180nm.lib
TEXT 808 56 Left 2 ;Parametres requis: \nll=longueur \nwn=largeur_nmos \nmp = 2.07\nAD=AS={450n*{wp}}\nPD={900n+{wp}} ou {900n+{wn}}\nPS={1080n+{wp}} ou {1080n+{wn}}
TEXT -312 104 Left 2 !.param wn=180n ll=180n wp=mp*wn mp=2.21
