Version 4
SHEET 1 1268 788
WIRE 640 96 336 96
WIRE 448 176 384 176
WIRE 640 192 640 96
WIRE 288 208 128 208
WIRE 640 208 640 192
WIRE 384 224 384 192
WIRE 288 256 288 208
WIRE 336 256 336 96
WIRE 336 256 288 256
WIRE 640 272 640 240
WIRE 384 288 384 272
WIRE 480 288 384 288
WIRE 640 320 640 288
WIRE 864 320 640 320
WIRE 592 336 592 272
WIRE 592 336 560 336
WIRE 640 336 640 320
WIRE 384 384 384 288
WIRE 640 384 640 352
WIRE 592 416 592 336
WIRE 480 432 480 288
WIRE 640 432 480 432
WIRE 336 464 336 256
WIRE 384 464 384 432
WIRE 384 576 384 480
WIRE 448 576 384 576
FLAG 128 208 in1
FLAG 560 336 in2
FLAG 448 176 vss
FLAG 448 576 vdd
FLAG 864 320 Q
SYMBOL nmos018 336 176 R0
SYMATTR InstName M1
SYMATTR Value2 l={ll} w={wn} ad={450n*{wn}} as={450n*{wn}} pd={900n+{wn}} ps={1080n+{wn}}
SYMBOL nmos018 592 336 R0
SYMATTR InstName M2
SYMATTR Value2 l={ll} w={wn} ad={450n*{wn}} as={450n*{wn}} pd={900n+{wn}} ps={1080n+{wn}}
SYMBOL pmos018 336 384 R0
SYMATTR InstName M3
SYMATTR Value2 l={ll} w={wp} ad={450n*{wp}} as={450n*{wp}} pd={900n+{wp}} ps={1080n+{wp}}
SYMBOL pmos018 592 192 R0
SYMATTR InstName M4
SYMATTR Value2 l={ll} w={wp} ad={450n*{wp}} as={450n*{wp}} pd={900n+{wp}} ps={1080n+{wp}}
TEXT -80 56 Left 2 !.lib BU_180nm.lib
TEXT 808 56 Left 2 ;Parametres requis: \nll=longueur \nwn=largeur_nmos \nmp = 2.07\nAD=AS={450n*{wp}}\nPD={900n+{wp}} ou {900n+{wn}}\nPS={1080n+{wp}} ou {1080n+{wn}}
TEXT -368 88 Left 2 !.param wn=180n ll=180n wp=mp*wn mp=1
